module/powerflow/autotest/test_IEEE_37_FBS.glm
//37-node generated by script
//Starts after regulator, due to NR restrictions
//Primarily created to test constant_current rotation items

//#set profiler=1
#set complex_output_format=POLAR_DEG

clock {
	timezone EST+5EDT;
	starttime '2001-01-01 0:00:00';
	stoptime '2001-01-01 0:00:01';
}

module powerflow {
	solver_method FBS;
	line_capacitance true;
}
module assert;

//Asserts - values from IEEE reference document
object complex_assert {
	parent node_775;
	target "voltage_AB";
	value 485.325-0.11d;
	within 0.5;
}
object complex_assert {
	parent node_775;
	target "voltage_BC";
	value 480.576-120.73d;
	within 0.5;
}
object complex_assert {
	parent node_775;
	target "voltage_CA";
	value 478.416+120.07d;
	within 0.5;
}
object complex_assert {
	parent load_741;
	target "voltage_AB";
	value 4790.88+0.07d;
	within 0.5;
}
object complex_assert {
	parent load_741;
	target "voltage_BC";
	value 4781.76-120.75d;
	within 0.5;
}
object complex_assert {
	parent load_741;
	target "voltage_CA";
	value 4727.52+119.76d;
	within 0.5;
}


//include configurations
#include "../data_configurations_37_node.glm";

object voltdump {
	filename voltageout.csv;
	mode rect;
}

object currdump {
	filename currentout.csv;
	mode RECT;
}

//Pure nodes

object node {
	name node_702;
	phases ABCN;
	nominal_voltage 2771.2813;
}

object node {
	name node_703;
	phases ABCN;
	nominal_voltage 2771.2813;
}

object node {
	name node_704;
	phases ABCN;
	nominal_voltage 2771.2813;
}

object node {
	name node_705;
	phases ABCN;
	nominal_voltage 2771.2813;
}

object node {
	name node_706;
	phases ABCN;
	nominal_voltage 2771.2813;
}

object node {
	name node_707;
	phases ABCN;
	nominal_voltage 2771.2813;
}

object node {
	name node_708;
	phases ABCN;
	nominal_voltage 2771.2813;
}

object node {
	name node_709;
	phases ABCN;
	nominal_voltage 2771.2813;
}

object node {
	name node_710;
	phases ABCN;
	nominal_voltage 2771.2813;
}

object node {
	name node_711;
	phases ABCN;
	nominal_voltage 2771.2813;
}

object node {
	name node_775;
	phases ABCN;
	nominal_voltage 2771.2813;
}

object meter {
	name node_781;
	phases ABCN;
	nominal_voltage 2771.2813;
	bustype SWING;
	voltage_A 2400.000000-1385.640646j;
	voltage_B -2609.760000-1385.640646j;
	voltage_C -149.760000+2875.204341j;
}

//Pure spot loads

object load {
	name load_701;
	phases ABCD;
	constant_power_A 140000.000000+70000.000000j;
	constant_power_B 140000.000000+70000.000000j;
	constant_power_C 350000.000000+175000.000000j;
	nominal_voltage 2771.2813;
}

object load {
	name load_712;
	phases ABCD;
	constant_power_C 85000.000000+40000.000000j;
	nominal_voltage 2771.2813;
}

object load {
	name load_713;
	phases ABCD;
	constant_power_C 85000.000000+40000.000000j;
	nominal_voltage 2771.2813;
}

object load {
	name load_714;
	phases ABCD;
	constant_current_A 3.900507+0.327458j;
	constant_current_B -2.083333-4.375000j;
	nominal_voltage 2771.2813;
}

object load {
	name load_718;
	phases ABCD;
	constant_impedance_A 221.915014+104.430595j;
	nominal_voltage 2771.2813;
}

object load {
	name load_720;
	phases ABCD;
	constant_power_C 85000.000000+40000.000000j;
	nominal_voltage 2771.2813;
}

object load {
	name load_722;
	phases ABCD;
	constant_current_B -14.583333-29.166667j;
	constant_current_C -2.747194+3.991720j;
	nominal_voltage 2771.2813;
}

object load {
	name load_724;
	phases ABCD;
	constant_impedance_B 438.857143+219.428571j;
	nominal_voltage 2771.2813;
}

object load {
	name load_725;
	phases ABCD;
	constant_power_B 42000.000000+21000.000000j;
	nominal_voltage 2771.2813;
}

object load {
	name load_727;
	phases ABCD;
	constant_power_C 42000.000000+21000.000000j;
	nominal_voltage 2771.2813;
}

object load {
	name load_728;
	phases ABCD;
	constant_power_A 42000.000000+21000.000000j;
	constant_power_B 42000.000000+21000.000000j;
	constant_power_C 42000.000000+21000.000000j;
	nominal_voltage 2771.2813;
}

object load {
	name load_729;
	phases ABCD;
	constant_current_A 9.765222+0.586139j;
	nominal_voltage 2771.2813;
}

object load {
	name load_730;
	phases ABCD;
	constant_impedance_C 221.915014+104.430595j;
	nominal_voltage 2771.2813;
}

object load {
	name load_731;
	phases ABCD;
	constant_impedance_B 221.915014+104.430595j;
	nominal_voltage 2771.2813;
}

object load {
	name load_732;
	phases ABCD;
	constant_power_C 42000.000000+21000.000000j;
	nominal_voltage 2771.2813;
}

object load {
	name load_733;
	phases ABCD;
	constant_current_A 19.502533+1.637288j;
	nominal_voltage 2771.2813;
}

object load {
	name load_734;
	phases ABCD;
	constant_power_C 42000.000000+21000.000000j;
	nominal_voltage 2771.2813;
}

object load {
	name load_735;
	phases ABCD;
	constant_power_C 85000.000000+40000.000000j;
	nominal_voltage 2771.2813;
}

object load {
	name load_736;
	phases ABCD;
	constant_impedance_B 438.857143+219.428571j;
	nominal_voltage 2771.2813;
}

object load {
	name load_737;
	phases ABCD;
	constant_current_A 32.550741+1.953796j;
	nominal_voltage 2771.2813;
}

object load {
	name load_738;
	phases ABCD;
	constant_power_A 126000.000000+62000.000000j;
	nominal_voltage 2771.2813;
}

object load {
	name load_740;
	phases ABCD;
	constant_power_C 85000.000000+40000.000000j;
	nominal_voltage 2771.2813;
}

object load {
	name load_741;
	phases ABCD;
	constant_current_C -5.390222+8.163861j;
	nominal_voltage 2771.2813;
}

object load {
	name load_742;
	phases ABCD;
	constant_impedance_A 2304.000000+1152.000000j;
	constant_impedance_B 221.915014+104.430595j;
	nominal_voltage 2771.2813;
}

object load {
	name load_744;
	phases ABCD;
	constant_power_A 42000.000000+21000.000000j;
	nominal_voltage 2771.2813;
}

//distributed loads intermediates (2/3 load at 1/4 line)

//pure distributed loads (1/3 load at end of line)

//combination loads (1/3 dist load and spot load)

//Pure lines (no distributed loads)

object underground_line {
	name line701to702;
	phases ABC;
	from load_701;
	to node_702;
	length 960.00;
	configuration lc722;
}

object underground_line {
	name line702to705;
	phases ABC;
	from node_702;
	to node_705;
	length 400.00;
	configuration lc724;
}

object underground_line {
	name line702to713;
	phases ABC;
	from node_702;
	to load_713;
	length 360.00;
	configuration lc723;
}

object underground_line {
	name line702to703;
	phases ABC;
	from node_702;
	to node_703;
	length 1320.00;
	configuration lc722;
}

object underground_line {
	name line703to727;
	phases ABC;
	from node_703;
	to load_727;
	length 240.00;
	configuration lc724;
}

object underground_line {
	name line703to730;
	phases ABC;
	from node_703;
	to load_730;
	length 600.00;
	configuration lc723;
}

object underground_line {
	name line704to714;
	phases ABC;
	from node_704;
	to load_714;
	length 80.00;
	configuration lc724;
}

object underground_line {
	name line704to720;
	phases ABC;
	from node_704;
	to load_720;
	length 800.00;
	configuration lc723;
}

object underground_line {
	name line705to742;
	phases ABC;
	from node_705;
	to load_742;
	length 320.00;
	configuration lc724;
}

object underground_line {
	name line705to712;
	phases ABC;
	from node_705;
	to load_712;
	length 240.00;
	configuration lc724;
}

object underground_line {
	name line706to725;
	phases ABC;
	from node_706;
	to load_725;
	length 280.00;
	configuration lc724;
}

object underground_line {
	name line707to724;
	phases ABC;
	from node_707;
	to load_724;
	length 760.00;
	configuration lc724;
}

object underground_line {
	name line707to722;
	phases ABC;
	from node_707;
	to load_722;
	length 120.00;
	configuration lc724;
}

object underground_line {
	name line708to733;
	phases ABC;
	from node_708;
	to load_733;
	length 320.00;
	configuration lc723;
}

object underground_line {
	name line708to732;
	phases ABC;
	from node_708;
	to load_732;
	length 320.00;
	configuration lc724;
}

object underground_line {
	name line709to731;
	phases ABC;
	from node_709;
	to load_731;
	length 600.00;
	configuration lc723;
}

object underground_line {
	name line709to708;
	phases ABC;
	from node_709;
	to node_708;
	length 320.00;
	configuration lc723;
}

object underground_line {
	name line710to735;
	phases ABC;
	from node_710;
	to load_735;
	length 200.00;
	configuration lc724;
}

object underground_line {
	name line710to736;
	phases ABC;
	from node_710;
	to load_736;
	length 1280.00;
	configuration lc724;
}

object underground_line {
	name line711to741;
	phases ABC;
	from node_711;
	to load_741;
	length 400.00;
	configuration lc723;
}

object underground_line {
	name line711to740;
	phases ABC;
	from node_711;
	to load_740;
	length 200.00;
	configuration lc724;
}

object underground_line {
	name line713to704;
	phases ABC;
	from load_713;
	to node_704;
	length 520.00;
	configuration lc723;
}

object underground_line {
	name line714to718;
	phases ABC;
	from load_714;
	to load_718;
	length 520.00;
	configuration lc724;
}

object underground_line {
	name line720to707;
	phases ABC;
	from load_720;
	to node_707;
	length 920.00;
	configuration lc724;
}

object underground_line {
	name line720to706;
	phases ABC;
	from load_720;
	to node_706;
	length 600.00;
	configuration lc723;
}

object underground_line {
	name line727to744;
	phases ABC;
	from load_727;
	to load_744;
	length 280.00;
	configuration lc723;
}

object underground_line {
	name line730to709;
	phases ABC;
	from load_730;
	to node_709;
	length 200.00;
	configuration lc723;
}

object underground_line {
	name line733to734;
	phases ABC;
	from load_733;
	to load_734;
	length 560.00;
	configuration lc723;
}

object underground_line {
	name line734to737;
	phases ABC;
	from load_734;
	to load_737;
	length 640.00;
	configuration lc723;
}

object underground_line {
	name line734to710;
	phases ABC;
	from load_734;
	to node_710;
	length 520.00;
	configuration lc724;
}

object underground_line {
	name line737to738;
	phases ABC;
	from load_737;
	to load_738;
	length 400.00;
	configuration lc723;
}

object underground_line {
	name line738to711;
	phases ABC;
	from load_738;
	to node_711;
	length 400.00;
	configuration lc723;
}

object underground_line {
	name line744to728;
	phases ABC;
	from load_744;
	to load_728;
	length 200.00;
	configuration lc724;
}

object underground_line {
	name line744to729;
	phases ABC;
	from load_744;
	to load_729;
	length 280.00;
	configuration lc724;
}

object underground_line {
	name line781to701;
	phases ABC;
	from node_781;
	to load_701;
	length 1850.00;
	configuration lc721;
}

//Lines with distributed loads

//Transformers

object transformer {
	name trans709to775;
	phases ABCN;
	from node_709;
	to node_775;
	configuration tc400;
}

//Regulators

//Switches

//Capacitors

